* HSPICE Netlist for Sziklai Darlington Transistor Pair

* Circuit Parameters
.param R1VAL = 10 $ value for R1
+      R2VAL = 20 $ value for R2
+      R3VAL = 30 $ value for R3

* Analysis Directives
.TRAN  10us 1ms

* Sources
Vcc 6 0 DC=10V
Vin 1 0 PULSE(0 5V 0.25ms 0.1ms 0.1ms 0.5ms 1m)

* Circuit Netlist
R1 1 2 R1VAL
R2 3 5 R2VAL
R3 3 6 R3VAL
Q1 3 2 4 GPNP
Q2 5 4 0 GNPN
Q3 3 5 0 GPNP

.PRINT TRAN V(3) V(4) V(5)

.MODEL GNPN NPN LEVEL=1

.MODEL GPNP PNP LEVEL=1
