* HSPICE netlist for testing SFFM V-Sources

VSFF1 15 0 DC 3V SFFM(0V 1V 20K 10 5K)
RSSF1 15 0 1
.TRAN .001ms .5ms
.PRINT TRAN V(15)

.END
